*SPEF "1481-1998"
*DESIGN "magComp"
*DATE "Tue Jun  3 10:00:32 2025"
*VENDOR "Synopsys, Inc."
*PROGRAM "icc2 /home/synopsys_install/icc2/W-2024.09/linux64/nwtn/bin/icc2_exec"
*VERSION "W-2024.09 Aug 25, 2024"
*DESIGN_FLOW "ICC2 SPEF DR"
*DIVIDER /
*DELIMITER :
*BUS_DELIMITER [ ]
*T_UNIT 1 NS
*C_UNIT 1 FF
*R_UNIT 1 OHM
*L_UNIT 1 HENRY

// XY_UNIT 1 UM
// PARASITIC_TECH p1 at 125.000 degree

*NAME_MAP
*1 Clock
*2 A[7]
*3 A[6]
*4 A[5]
*5 A[4]
*6 A[3]
*7 A[2]
*8 A[1]
*9 A[0]
*10 B[7]
*11 B[6]
*12 B[5]
*13 B[4]
*14 B[3]
*15 B[2]
*16 B[1]
*17 B[0]
*18 Gt
*19 Lt
*20 Eq
*21 VDD
*22 VSS
*23 Eq_reg
*24 Gt_reg
*25 Lt_reg
*26 ctosc_drc_inst_335
*27 ctosc_drc_inst_426
*28 U56
*29 U57
*30 U58
*31 U59
*32 U60
*33 U61
*34 U62
*35 U63
*36 U64
*37 U65
*38 U66
*39 U67
*40 U68
*41 U69
*42 U70
*43 U71
*44 U72
*45 U73
*46 U74
*47 U75
*48 U76
*49 U77
*50 U78
*51 U80
*52 U81
*53 U82
*54 U83
*55 U84
*56 U85
*57 U86
*58 U87
*59 ctosc_drc_0
*60 N1
*61 N6
*62 N7
*63 ctosc_drc_1
*64 n51
*65 n52
*66 n53
*67 n54
*68 n55
*69 n56
*70 n57
*71 n58
*72 n59
*73 n60
*74 n61
*75 n62
*76 n63
*77 n64
*78 n65
*79 n66
*80 n67
*81 n68
*82 n69
*83 n71
*84 n72
*85 n73
*86 n74
*87 n75
*88 n76
*89 n77
*90 n78
*91 n79

*PORTS

*1 I *C 0.143 7.472
*2 I *C 10.576 8.873
*3 I *C 9.056 0.143
*4 I *C 13.561 14.768
*5 I *C 13.561 15.376
*6 I *C 9.512 10.175
*7 I *C 8.752 10.175
*8 I *C 13.561 13.856
*9 I *C 8.752 8.873
*10 I *C 13.561 12.640
*11 I *C 13.561 15.984
*12 I *C 7.840 18.905
*13 I *C 4.952 18.905
*14 I *C 0.143 15.984
*15 I *C 0.143 14.464
*16 I *C 9.056 8.873
*17 I *C 0.143 8.384
*18 O *C 0.143 6.864
*19 O *C 6.928 0.143
*20 O *C 4.800 0.143
*21 I *C 6.852 9.524
*22 I *C 6.852 9.524

*D_NET *59 1.069102 //LENGTH 13.959 LUMPCC 0 DR

*CONN
*I *26:Y O *L 0 *C 2.672 7.624
*I *24:CLK I *L 0.714381 *C 1.760 5.496
*I *23:CLK I *L 0.714381 *C 1.760 2.152
*I *25:CLK I *L 0.714381 *C 6.016 2.152
*N *59:4 *C 6.016 2.166
*N *59:5 *C 6.016 2.595
*N *59:6 *C 6.003 2.608
*N *59:7 *C 1.760 2.166
*N *59:8 *C 1.760 2.595
*N *59:9 *C 1.774 2.608
*N *59:10 *C 4.344 2.608
*N *59:11 *C 4.344 2.622
*N *59:12 *C 4.344 5.635
*N *59:13 *C 4.330 5.648
*N *59:14 *C 1.760 5.496
*N *59:15 *C 1.760 5.636
*N *59:16 *C 1.774 5.648
*N *59:17 *C 2.520 5.648
*N *59:18 *C 2.520 5.662
*N *59:19 *C 2.520 7.472
*N *59:20 *C 2.672 7.472
*N *59:21 *C 2.672 7.611

*CAP
0 *26:Y 0.001
1 *24:CLK 0.001
2 *23:CLK 0.001
3 *25:CLK 0.001
4 *59:4 0.01856322
5 *59:5 0.0199959
6 *59:6 0.05676726
7 *59:7 0.01926036
8 *59:8 0.02069304
9 *59:9 0.08745538
10 *59:10 0.1465949
11 *59:11 0.1369883
12 *59:12 0.1369883
13 *59:13 0.0671651
14 *59:14 0.009098883
15 *59:15 0.01053156
16 *59:16 0.0275328
17 *59:17 0.09707011
18 *59:18 0.08466599
19 *59:19 0.09572884
20 *59:20 0.02124889
21 *59:21 0.008753355

*RES
0 *26:Y *59:21 1
1 *59:5 *59:4 0.7660715
2 *59:6 *59:5 0.5
3 *59:4 *25:CLK 1
4 *59:11 *59:10 0.5
5 *59:10 *59:9 4.590179
6 *59:10 *59:6 2.961607
7 *59:12 *59:11 5.380358
8 *59:13 *59:12 0.5
9 *59:18 *59:17 0.5
10 *59:17 *59:16 1.333036
11 *59:17 *59:13 3.233036
12 *59:21 *59:20 0.2473215
13 *59:15 *59:14 0.2325
14 *59:16 *59:15 0.5
15 *59:14 *24:CLK 1
16 *59:8 *59:7 0.7660714
17 *59:9 *59:8 0.5
18 *59:7 *23:CLK 1
19 *59:19 *59:18 3.233036
20 *59:20 *59:19 0.2714286

*END

*D_NET *1 0.2559018 //LENGTH 3.370 LUMPCC 0 DR

*CONN
*P *1 I *L 0 *C 0.258 7.472
*I *27:A I *L 2.117502 *C 1.304 9.600
*N *1:2 *C 1.303 9.600
*N *1:3 *C 1.152 9.600
*N *1:4 *C 1.152 7.486
*N *1:5 *C 1.139 7.472

*CAP
0 *1 0.03713604
1 *27:A 0.001
2 *1:2 0.003857528
3 *1:3 0.09458955
4 *1:4 0.0845549
5 *1:5 0.03476382

*RES
0 *1 *1:5 1.572322
1 *1:2 *27:A 1
2 *1:4 *1:3 3.775893
3 *1:5 *1:4 0.5
4 *1:3 *1:2 0.2696429

*END

*D_NET *2 0.2811285 //LENGTH 3.689 LUMPCC 0 DR

*CONN
*P *2 I *L 0 *C 10.576 8.758
*I *33:A I *L 0.604022 *C 11.488 6.256
*N *2:2 *C 11.488 6.270
*N *2:3 *C 11.488 7.155
*N *2:4 *C 11.475 7.168
*N *2:5 *C 10.590 7.168
*N *2:6 *C 10.576 7.182

*CAP
0 *2 0.07218909
1 *33:A 0.001
2 *2:2 0.03633874
3 *2:3 0.03777142
4 *2:4 0.03200621
5 *2:5 0.03200621
6 *2:6 0.06981687

*RES
0 *2 *2:6 2.815179
1 *2:2 *33:A 1
2 *2:3 *2:2 1.580357
3 *2:4 *2:3 0.5
4 *2:6 *2:5 0.5
5 *2:5 *2:4 1.580357

*END

*D_NET *3 0.6738498 //LENGTH 8.347 LUMPCC 0 DR

*CONN
*P *3 I *L 0 *C 9.056 0.272
*I *56:A1 I *L 0.621599 *C 7.992 4.432
*I *31:A I *L 0.604022 *C 9.816 4.432
*N *3:3 *C 9.816 4.418
*N *3:4 *C 7.992 4.418
*N *3:5 *C 7.992 3.230
*N *3:6 *C 8.005 3.216
*N *3:7 *C 9.803 3.216
*N *3:8 *C 9.816 3.216
*N *3:9 *C 9.816 2.456
*N *3:10 *C 9.056 2.456

*CAP
0 *3 0.09179181
1 *56:A1 0.001
2 *31:A 0.001
3 *3:3 0.05120086
4 *3:4 0.06332988
5 *3:5 0.06476256
6 *3:6 0.06742875
7 *3:7 0.06742875
8 *3:8 0.08044443
9 *3:9 0.06074095
10 *3:10 0.1247219

*RES
0 *3 *3:10 3.9
1 *3:3 *31:A 1
2 *3:8 *3:7 0.5
3 *3:8 *3:3 2.147322
4 *3:7 *3:6 3.208929
5 *3:5 *3:4 2.123214
6 *3:6 *3:5 0.5
7 *3:4 *56:A1 1
8 *3:10 *3:9 1.357143
9 *3:9 *3:8 1.357143

*END

*D_NET *4 0.197899 //LENGTH 2.883 LUMPCC 0 DR

*CONN
*P *4 I *L 0 *C 13.446 14.768
*I *41:A I *L 0.604022 *C 11.032 14.464
*N *4:2 *C 11.032 14.478
*N *4:3 *C 11.032 14.755
*N *4:4 *C 11.046 14.768

*CAP
0 *4 0.08702595
1 *41:A 0.001
2 *4:2 0.01189335
3 *4:3 0.01332603
4 *4:4 0.08465373

*RES
0 *4 *4:4 4.286607
1 *4:2 *41:A 1
2 *4:3 *4:2 0.4946429
3 *4:4 *4:3 0.5

*END

*D_NET *5 0.2865398 //LENGTH 3.603 LUMPCC 0 DR

*CONN
*P *5 I *L 0 *C 13.446 15.376
*I *30:A I *L 0.604022 *C 11.032 16.288
*N *5:2 *C 11.032 16.274
*N *5:3 *C 11.032 15.694
*N *5:4 *C 11.046 15.680
*N *5:5 *C 13.160 15.680
*N *5:6 *C 13.160 15.376

*CAP
0 *5 0.01279545
1 *30:A 0.001
2 *5:2 0.02283102
3 *5:3 0.02426369
4 *5:4 0.0948665
5 *5:5 0.1076132
6 *5:6 0.02316995

*RES
0 *5 *5:6 0.5107143
1 *5:2 *30:A 1
2 *5:3 *5:2 1.0375
3 *5:4 *5:3 0.5
4 *5:5 *5:4 3.775893
5 *5:6 *5:5 0.5428572

*END

*D_NET *6 0.26464 //LENGTH 3.669 LUMPCC 0 DR

*CONN
*P *6 I *L 0 *C 9.512 10.290
*I *34:A I *L 0.604022 *C 10.120 12.944
*N *6:2 *C 10.120 12.762
*N *6:3 *C 10.120 12.931
*N *6:4 *C 10.107 12.944
*N *6:5 *C 9.526 12.944
*N *6:6 *C 9.512 12.931

*CAP
0 *6 0.09620804
1 *34:A 0.001
2 *6:2 0.01233407
3 *6:3 0.00615695
4 *6:4 0.02755203
5 *6:5 0.02755257
6 *6:6 0.09383637

*RES
0 *6 *6:6 4.715178
1 *6:3 *34:A 1
2 *6:3 *6:2 0.2825
3 *6:4 *6:3 0.5
4 *6:5 *6:4 1.0375
5 *6:6 *6:5 0.5

*END

*D_NET *7 0.8313202 //LENGTH 10.823 LUMPCC 0 DR

*CONN
*P *7 I *L 0 *C 8.752 10.304
*I *37:A I *L 0.604022 *C 1.292 12.974
*N *7:2 *C 1.165 12.944
*N *7:3 *C 1.152 12.931
*N *7:4 *C 1.152 11.438
*N *7:5 *C 1.165 11.424
*N *7:6 *C 5.560 11.424
*N *7:7 *C 5.560 10.512
*N *7:8 *C 8.739 10.512
*N *7:9 *C 8.752 10.498

*CAP
0 *7 0.01249293
1 *37:A 0.01294826
2 *7:2 0.01087286
3 *7:3 0.05728222
4 *7:4 0.0569854
5 *7:5 0.1712238
6 *7:6 0.2071705
7 *7:7 0.1640851
8 *7:8 0.1281384
9 *7:9 0.01012071

*RES
0 *7 *7:9 0.3473215
1 *7:2 *37:A 0.2133334
2 *7:3 *7:2 1
3 *7:4 *7:3 2.666071
4 *7:5 *7:4 0.5
5 *7:9 *7:8 0.5
6 *7:8 *7:7 5.675893
7 *7:6 *7:5 7.847322
8 *7:7 *7:6 1.628572

*END

*D_NET *8 1.617367 //LENGTH 16.900 LUMPCC 0 DR

*CONN
*P *8 I *L 0 *C 13.446 13.856
*I *49:A2 I *L 0.705032 *C 4.346 11.120
*I *40:A1 I *L 0.530816 *C 5.941 7.776
*N *8:3 *C 5.727 7.776
*N *8:4 *C 5.712 7.790
*N *8:5 *C 4.344 11.094
*N *8:6 *C 4.344 10.222
*N *8:7 *C 4.357 10.208
*N *8:8 *C 5.699 10.208
*N *8:9 *C 5.712 10.208
*N *8:10 *C 5.712 11.728
*N *8:11 *C 5.864 11.728
*N *8:12 *C 5.864 13.843
*N *8:13 *C 5.878 13.856

*CAP
0 *8 0.3159955
1 *49:A2 0.001
2 *40:A1 0.02079262
3 *8:3 0.01871722
4 *8:4 0.1425191
5 *8:5 0.05040824
6 *8:6 0.05270568
7 *8:7 0.0694986
8 *8:8 0.0694986
9 *8:9 0.2265687
10 *8:10 0.09289206
11 *8:11 0.1270327
12 *8:12 0.1161149
13 *8:13 0.3136233

*RES
0 *8 *8:13 13.51518
1 *8:12 *8:11 3.775893
2 *8:13 *8:12 0.5
3 *8:3 *40:A1 0.428
4 *8:4 *8:3 1
5 *8:9 *8:8 0.5
6 *8:9 *8:4 4.31875
7 *8:8 *8:7 2.394643
8 *8:6 *8:5 1.558036
9 *8:7 *8:6 0.5
10 *8:5 *49:A2 0.5
11 *8:10 *8:9 2.714286
12 *8:11 *8:10 0.2714286

*END

*D_NET *9 0.5208327 //LENGTH 6.161 LUMPCC 0 DR

*CONN
*P *9 I *L 0 *C 8.752 8.758
*I *40:A3 I *L 0.560691 *C 5.560 7.168
*I *36:A1 I *L 0.49821 *C 5.697 6.256
*N *9:3 *C 5.573 6.256
*N *9:4 *C 5.560 6.270
*N *9:5 *C 5.560 7.155
*N *9:6 *C 5.574 7.168
*N *9:7 *C 8.739 7.168
*N *9:8 *C 8.752 7.182

*CAP
0 *9 0.0699227
1 *40:A3 0.001
2 *36:A1 0.01593669
3 *9:3 0.01386129
4 *9:4 0.04802551
5 *9:5 0.0439238
6 *9:6 0.1303061
7 *9:7 0.1303061
8 *9:8 0.06755049

*RES
0 *9 *9:8 2.815179
1 *9:5 *40:A3 1
2 *9:5 *9:4 1.580357
3 *9:6 *9:5 0.5
4 *9:8 *9:7 0.5
5 *9:7 *9:6 5.651786
6 *9:3 *36:A1 0.2075
7 *9:4 *9:3 1

*END

*D_NET *10 1.620721 //LENGTH 20.047 LUMPCC 0 DR

*CONN
*P *10 I *L 0 *C 13.446 12.640
*I *43:A1 I *L 0.530816 *C 10.272 6.256
*I *55:A1 I *L 0.564384 *C 10.606 4.761
*I *46:A2 I *L 0.705032 *C 11.794 4.432
*N *10:4 *C 11.793 4.279
*N *10:5 *C 11.794 4.408
*N *10:6 *C 11.779 4.432
*N *10:7 *C 10.865 4.736
*N *10:8 *C 10.880 4.723
*N *10:9 *C 10.880 4.446
*N *10:10 *C 10.880 4.432
*N *10:11 *C 10.286 4.432
*N *10:12 *C 10.272 4.446
*N *10:13 *C 10.272 6.256
*N *10:14 *C 10.272 8.370
*N *10:15 *C 10.258 8.384
*N *10:16 *C 7.550 8.384
*N *10:17 *C 7.536 8.398
*N *10:18 *C 7.536 11.715
*N *10:19 *C 7.550 11.728
*N *10:20 *C 8.891 11.728
*N *10:21 *C 8.904 11.742
*N *10:22 *C 8.904 12.627
*N *10:23 *C 8.918 12.640

*CAP
0 *10 0.1612553
1 *43:A1 0.001
2 *55:A1 0.02125131
3 *46:A2 0.001
4 *10:4 0.01055797
5 *10:5 0.004380852
6 *10:6 0.03481375
7 *10:7 0.01917591
8 *10:8 0.01765605
9 *10:9 0.01735923
10 *10:10 0.06543156
11 *10:11 0.0282456
12 *10:12 0.08411386
13 *10:13 0.1747175
14 *10:14 0.08966415
15 *10:15 0.1054225
16 *10:16 0.1054225
17 *10:17 0.1681281
18 *10:18 0.1681281
19 *10:19 0.05638051
20 *10:20 0.05638106
21 *10:21 0.03567598
22 *10:22 0.03567598
23 *10:23 0.1588836

*RES
0 *10 *10:23 8.086608
1 *10:5 *46:A2 0.5
2 *10:5 *10:4 0.2072581
3 *10:6 *10:5 0.5
4 *10:9 *10:8 0.4946429
5 *10:10 *10:9 0.5
6 *10:10 *10:6 1.604464
7 *10:7 *55:A1 0.5180001
8 *10:8 *10:7 1
9 *10:13 *43:A1 1
10 *10:13 *10:12 3.233036
11 *10:12 *10:11 0.5
12 *10:11 *10:10 1.061607
13 *10:14 *10:13 3.775893
14 *10:15 *10:14 0.5
15 *10:17 *10:16 0.5
16 *10:16 *10:15 4.8375
17 *10:18 *10:17 5.923215
18 *10:19 *10:18 0.5
19 *10:20 *10:19 2.394643
20 *10:21 *10:20 0.5
21 *10:23 *10:22 0.5
22 *10:22 *10:21 1.580357

*END

*D_NET *11 1.60017 //LENGTH 20.701 LUMPCC 0 DR

*CONN
*P *11 I *L 0 *C 13.446 15.984
*I *36:A3 I *L 0.590351 *C 6.320 5.952
*I *32:A I *L 0.604022 *C 7.992 6.256
*I *43:A3 I *L 0.560691 *C 9.716 6.864
*N *11:4 *C 9.664 6.864
*N *11:5 *C 9.664 6.851
*N *11:6 *C 9.664 6.270
*N *11:7 *C 9.651 6.256
*N *11:8 *C 7.992 6.074
*N *11:9 *C 7.992 6.244
*N *11:10 *C 7.992 6.256
*N *11:11 *C 6.320 5.966
*N *11:12 *C 6.320 6.243
*N *11:13 *C 6.333 6.256
*N *11:14 *C 7.688 6.256
*N *11:15 *C 7.688 6.270
*N *11:16 *C 7.688 15.667
*N *11:17 *C 7.702 15.680
*N *11:18 *C 9.816 15.680
*N *11:19 *C 9.816 15.984

*CAP
0 *11 0.1352362
1 *36:A3 0.001
2 *32:A 0.001
3 *43:A3 0.01005322
4 *11:4 0.007977816
5 *11:5 0.03253271
6 *11:6 0.03223589
7 *11:7 0.06194248
8 *11:8 0.01622478
9 *11:9 0.01004766
10 *11:10 0.07327376
11 *11:11 0.02068103
12 *11:12 0.02211371
13 *11:13 0.05049597
14 *11:14 0.0618278
15 *11:15 0.3510882
16 *11:16 0.3510882
17 *11:17 0.1009206
18 *11:18 0.1142433
19 *11:19 0.1461873

*RES
0 *11 *11:19 6.482143
1 *11:6 *11:5 1.0375
2 *11:7 *11:6 0.5
3 *11:4 *43:A3 0.09166668
4 *11:5 *11:4 1
5 *11:9 *32:A 1
6 *11:9 *11:8 0.2825
7 *11:10 *11:9 0.5
8 *11:10 *11:7 2.961607
9 *11:14 *11:13 2.41875
10 *11:14 *11:10 0.5428572
11 *11:15 *11:14 0.5
12 *11:17 *11:16 0.5
13 *11:16 *11:15 16.78036
14 *11:12 *11:11 0.4946429
15 *11:13 *11:12 0.5
16 *11:11 *36:A3 1
17 *11:18 *11:17 3.775893
18 *11:19 *11:18 0.5428572

*END

*D_NET *12 0.521368 //LENGTH 6.204 LUMPCC 0 DR

*CONN
*P *12 I *L 0 *C 7.840 18.790
*I *42:A3 I *L 0.560691 *C 7.688 16.896
*I *45:A2 I *L 0.705032 *C 9.206 14.464
*N *12:3 *C 9.208 14.490
*N *12:4 *C 9.208 15.363
*N *12:5 *C 9.194 15.376
*N *12:6 *C 7.854 15.376
*N *12:7 *C 7.840 15.389
*N *12:8 *C 7.689 16.896
*N *12:9 *C 7.840 16.896

*CAP
0 *12 0.07007293
1 *42:A3 0.001
2 *45:A2 0.001
3 *12:3 0.04397549
4 *12:4 0.04627292
5 *12:5 0.06973286
6 *12:6 0.06973286
7 *12:7 0.06774899
8 *12:8 0.003916482
9 *12:9 0.1479155

*RES
0 *12 *12:9 3.382143
1 *12:7 *12:6 0.5
2 *12:6 *12:5 2.394643
3 *12:4 *12:3 1.558036
4 *12:5 *12:4 0.5
5 *12:3 *45:A2 0.5
6 *12:8 *42:A3 1
7 *12:9 *12:8 0.2696429
8 *12:9 *12:7 2.690179

*END

*D_NET *13 0.4522788 //LENGTH 5.750 LUMPCC 0 DR

*CONN
*P *13 I *L 0 *C 4.952 18.790
*I *35:A3 I *L 0.590351 *C 5.712 15.984
*I *42:A1 I *L 0.530816 *C 7.202 16.288
*N *13:3 *C 6.472 16.288
*N *13:4 *C 6.472 16.289
*N *13:5 *C 6.472 16.579
*N *13:6 *C 6.458 16.592
*N *13:7 *C 5.712 15.998
*N *13:8 *C 5.712 16.579
*N *13:9 *C 5.712 16.592
*N *13:10 *C 4.966 16.592
*N *13:11 *C 4.952 16.605

*CAP
0 *13 0.07421812
1 *35:A3 0.001
2 *42:A1 0.04312973
3 *13:3 0.04896254
4 *13:4 0.01565942
5 *13:5 0.0153626
6 *13:6 0.03035625
7 *13:7 0.02756739
8 *13:8 0.02900007
9 *13:9 0.06395207
10 *13:10 0.03122415
11 *13:11 0.07184644

*RES
0 *13 *13:11 3.900893
1 *13:5 *13:4 0.5169643
2 *13:6 *13:5 0.5
3 *13:3 *42:A1 1.46
4 *13:4 *13:3 1
5 *13:8 *13:7 1.0375
6 *13:9 *13:8 0.5
7 *13:9 *13:6 1.333036
8 *13:7 *35:A3 1
9 *13:10 *13:9 1.333036
10 *13:11 *13:10 0.5

*END

*D_NET *14 0.5949382 //LENGTH 7.040 LUMPCC 0 DR

*CONN
*P *14 I *L 0 *C 0.258 15.984
*I *38:A2 I *L 0.53006 *C 2.368 15.984
*I *51:A1 I *L 0.616969 *C 4.192 16.136
*I *35:A1 I *L 0.49821 *C 6.320 16.288
*N *14:4 *C 6.320 16.274
*N *14:5 *C 6.320 15.998
*N *14:6 *C 6.307 15.984
*N *14:7 *C 4.192 16.123
*N *14:8 *C 4.192 15.984
*N *14:9 *C 4.192 15.984
*N *14:10 *C 2.368 15.802
*N *14:11 *C 2.368 15.972
*N *14:12 *C 2.368 15.984

*CAP
0 *14 0.07828412
1 *38:A2 0.001
2 *51:A1 0.001
3 *35:A1 0.001
4 *14:4 0.01839203
5 *14:5 0.01982471
6 *14:6 0.09572054
7 *14:7 0.009364943
8 *14:8 0.01079762
9 *14:9 0.1749595
10 *14:10 0.01781049
11 *14:11 0.01163338
12 *14:12 0.1551508

*RES
0 *14 *14:12 3.767857
1 *14:5 *14:4 0.4946429
2 *14:6 *14:5 0.5
3 *14:4 *35:A1 1
4 *14:8 *14:7 0.2325
5 *14:9 *14:8 0.5
6 *14:9 *14:6 3.775893
7 *14:7 *51:A1 1
8 *14:11 *38:A2 1
9 *14:11 *14:10 0.2825
10 *14:12 *14:11 0.5
11 *14:12 *14:9 3.257143

*END

*D_NET *15 0.3920085 //LENGTH 4.314 LUMPCC 0 DR

*CONN
*P *15 I *L 0 *C 0.258 14.464
*I *48:A2 I *L 0.705032 *C 1.914 14.464
*I *38:A4 I *L 0.582243 *C 2.216 16.440
*N *15:3 *C 2.216 16.427
*N *15:4 *C 2.216 14.478
*N *15:5 *C 2.203 14.464
*N *15:6 *C 1.913 14.311
*N *15:7 *C 1.914 14.440
*N *15:8 *C 1.912 14.464

*CAP
0 *15 0.06059974
1 *48:A2 0.001
2 *38:A4 0.001
3 *15:3 0.1111805
4 *15:4 0.1126132
5 *15:5 0.01299413
6 *15:6 0.01260209
7 *15:7 0.00642498
8 *15:8 0.07359388

*RES
0 *15 *15:8 2.953571
1 *15:4 *15:3 3.480357
2 *15:5 *15:4 0.5
3 *15:3 *38:A4 1
4 *15:7 *48:A2 0.5
5 *15:7 *15:6 0.2072581
6 *15:8 *15:7 0.5
7 *15:8 *15:5 0.51875

*END

*D_NET *16 0.4352844 //LENGTH 5.257 LUMPCC 0 DR

*CONN
*P *16 I *L 0 *C 9.056 8.758
*I *39:A I *L 0.604022 *C 6.624 9.600
*N *16:2 *C 6.624 9.418
*N *16:3 *C 6.624 9.588
*N *16:4 *C 6.638 9.600
*N *16:5 *C 7.067 9.600
*N *16:6 *C 7.080 9.587
*N *16:7 *C 7.080 8.094
*N *16:8 *C 7.094 8.080
*N *16:9 *C 9.043 8.080
*N *16:10 *C 9.056 8.094

*CAP
0 *16 0.03201165
1 *39:A 0.001
2 *16:2 0.01764365
3 *16:3 0.01146653
4 *16:4 0.01926445
5 *16:5 0.01926499
6 *16:6 0.05895155
7 *16:7 0.05895155
8 *16:8 0.09354556
9 *16:9 0.09354501
10 *16:10 0.02963943

*RES
0 *16 *16:10 1.186607
1 *16:3 *39:A 1
2 *16:3 *16:2 0.2825
3 *16:4 *16:3 0.5
4 *16:5 *16:4 0.7660714
5 *16:6 *16:5 0.5
6 *16:8 *16:7 0.5
7 *16:7 *16:6 2.666071
8 *16:10 *16:9 0.5
9 *16:9 *16:8 3.480357

*END

*D_NET *17 0.315948 //LENGTH 4.403 LUMPCC 0 DR

*CONN
*P *17 I *L 0 *C 0.258 8.384
*I *29:A I *L 0.604022 *C 3.888 7.776
*N *17:2 *C 3.888 7.790
*N *17:3 *C 3.888 8.370
*N *17:4 *C 3.875 8.384

*CAP
0 *17 0.1326549
1 *29:A 0.001
2 *17:2 0.02528887
3 *17:3 0.02672155
4 *17:4 0.1302827

*RES
0 *17 *17:4 6.458036
1 *17:2 *29:A 1
2 *17:3 *17:2 1.0375
3 *17:4 *17:3 0.5

*END

*D_NET *18 0.4494565 //LENGTH 5.619 LUMPCC 0 DR

*CONN
*I *24:Q O *L 0 *C 4.800 5.952
*P *18 O *L 0 *C 0.258 6.864
*N *18:2 *C 4.787 6.864
*N *18:3 *C 4.800 6.851
*N *18:4 *C 4.800 5.966

*CAP
0 *24:Q 0.001
1 *18 0.1872154
2 *18:2 0.1848432
3 *18:3 0.03891528
4 *18:4 0.0374826

*RES
0 *24:Q *18:4 1
1 *18:4 *18:3 1.580357
2 *18:3 *18:2 0.5
3 *18:2 *18 8.086607

*END

*D_NET *19 0.4707333 //LENGTH 4.795 LUMPCC 0 DR

*CONN
*I *25:Q O *L 0 *C 9.056 2.608
*P *19 O *L 0 *C 6.928 0.272
*N *19:2 *C 6.928 1.835
*N *19:3 *C 6.943 1.848
*N *19:4 *C 8.889 1.848
*N *19:5 *C 8.904 1.862
*N *19:6 *C 8.904 2.608
*N *19:7 *C 9.043 2.608

*CAP
0 *25:Q 0.001
1 *19 0.05814398
2 *19:2 0.05606858
3 *19:3 0.1279539
4 *19:4 0.1279539
5 *19:5 0.03993022
6 *19:6 0.05274658
7 *19:7 0.006936067

*RES
0 *25:Q *19:7 1
1 *19:7 *19:6 0.2473214
2 *19:4 *19:3 3.892
3 *19:5 *19:4 1
4 *19:3 *19:2 1
5 *19:2 *19 2.790179
6 *19:6 *19:5 1.333036

*END

*D_NET *20 0.1744167 //LENGTH 2.405 LUMPCC 0 DR

*CONN
*I *23:Q O *L 0 *C 4.800 2.608
*P *20 O *L 0 *C 4.800 0.258
*N *20:2 *C 4.800 2.595

*CAP
0 *23:Q 0.001
1 *20 0.08861082
2 *20:2 0.08480592

*RES
0 *23:Q *20:2 1
1 *20:2 *20 4.172321

*END

*D_NET *60 1.01572 //LENGTH 10.693 LUMPCC 0 DR

*CONN
*I *50:Y O *L 0 *C 1.912 10.968
*I *23:D I *L 0.558146 *C 1.456 3.064
*I *58:A1 I *L 0.610165 *C 3.706 4.432
*N *60:3 *C 1.456 3.078
*N *60:4 *C 1.456 4.418
*N *60:5 *C 1.471 4.432
*N *60:6 *C 2.064 4.432
*N *60:7 *C 2.064 4.446
*N *60:8 *C 2.064 10.512
*N *60:9 *C 1.912 10.512
*N *60:10 *C 1.912 10.955

*CAP
0 *50:Y 0.001
1 *23:D 0.001
2 *58:A1 0.08939427
3 *60:3 0.04818857
4 *60:4 0.04991807
5 *60:5 0.02794534
6 *60:6 0.1243758
7 *60:7 0.3014257
8 *60:8 0.3118256
9 *60:9 0.03638779
10 *60:10 0.02425836

*RES
0 *50:Y *60:10 1
1 *60:6 *60:5 1.186
2 *60:6 *58:A1 3.284001
3 *60:7 *60:6 1
4 *60:10 *60:9 0.7901786
5 *60:5 *60:4 1
6 *60:4 *60:3 2.394643
7 *60:3 *23:D 1
8 *60:9 *60:8 0.2714286
9 *60:8 *60:7 10.83304

*END

*D_NET *61 0.5656354 //LENGTH 7.560 LUMPCC 0 DR

*CONN
*I *57:Y O *L 0 *C 6.168 4.584
*I *58:A2 I *L 0.708348 *C 4.040 4.310
*I *24:D I *L 0.558146 *C 1.456 6.408
*N *61:3 *C 1.456 6.396
*N *61:4 *C 1.456 6.256
*N *61:5 *C 1.470 6.256
*N *61:6 *C 4.027 6.256
*N *61:7 *C 4.040 6.243
*N *61:8 *C 4.040 4.310
*N *61:9 *C 4.040 4.446
*N *61:10 *C 4.054 4.432
*N *61:11 *C 6.155 4.432
*N *61:12 *C 6.168 4.432
*N *61:13 *C 6.168 4.572

*CAP
0 *57:Y 0.001
1 *58:A2 0.001
2 *24:D 0.001
3 *61:3 0.006876701
4 *61:4 0.008309378
5 *61:5 0.09975439
6 *61:6 0.09975439
7 *61:7 0.08344579
8 *61:8 0.007881153
9 *61:9 0.09084968
10 *61:10 0.07286418
11 *61:11 0.07286418
12 *61:12 0.01073413
13 *61:13 0.009301451

*RES
0 *57:Y *61:13 1
1 *61:9 *61:8 0.2258334
2 *61:9 *61:7 3.208929
3 *61:10 *61:9 0.5
4 *61:12 *61:11 0.5
5 *61:11 *61:10 3.751786
6 *61:13 *61:12 0.2325
7 *61:8 *58:A2 0.5
8 *61:7 *61:6 0.5
9 *61:6 *61:5 4.566072
10 *61:4 *61:3 0.2325
11 *61:5 *61:4 0.5
12 *61:3 *24:D 1

*END

*D_NET *62 0.1838032 //LENGTH 2.111 LUMPCC 0 DR

*CONN
*I *58:Y O *L 0 *C 4.830 4.107
*I *25:D I *L 0.558146 *C 5.712 3.064
*N *62:2 *C 5.712 3.078
*N *62:3 *C 5.712 4.115
*N *62:4 *C 5.697 4.128

*CAP
0 *58:Y 0.04880818
1 *25:D 0.001
2 *62:2 0.04276636
3 *62:3 0.04449586
4 *62:4 0.04673278

*RES
0 *58:Y *62:4 1.734
1 *62:2 *25:D 1
2 *62:4 *62:3 1
3 *62:3 *62:2 1.851786

*END

*D_NET *63 0.4548487 //LENGTH 4.895 LUMPCC 0 DR

*CONN
*I *27:Y O *L 0 *C 4.496 9.752
*I *26:A I *L 0.578227 *C 1.912 7.776
*N *63:2 *C 1.912 7.790
*N *63:3 *C 1.912 9.587
*N *63:4 *C 1.925 9.600
*N *63:5 *C 4.482 9.600
*N *63:6 *C 4.496 9.600
*N *63:7 *C 4.496 9.739

*CAP
0 *27:Y 0.001
1 *26:A 0.001
2 *63:2 0.1131936
3 *63:3 0.1146263
4 *63:4 0.0974033
5 *63:5 0.0974033
6 *63:6 0.01582747
7 *63:7 0.01439479

*RES
0 *27:Y *63:7 1
1 *63:2 *26:A 1
2 *63:3 *63:2 3.208929
3 *63:4 *63:3 0.5
4 *63:6 *63:5 0.5
5 *63:5 *63:4 4.566072
6 *63:7 *63:6 0.2325

*END

*D_NET *64 0.5983477 //LENGTH 6.976 LUMPCC 0 DR

*CONN
*I *31:Y O *L 0 *C 9.512 4.280
*I *36:A4 I *L 0.546328 *C 6.016 6.104
*I *43:A4 I *L 0.582243 *C 9.968 6.408
*N *64:3 *C 9.968 6.395
*N *64:4 *C 9.968 5.662
*N *64:5 *C 9.955 5.648
*N *64:6 *C 6.016 6.091
*N *64:7 *C 6.016 5.662
*N *64:8 *C 6.030 5.648
*N *64:9 *C 9.512 5.648
*N *64:10 *C 9.512 5.635
*N *64:11 *C 9.512 4.293

*CAP
0 *31:Y 0.001
1 *36:A4 0.001
2 *43:A4 0.001
3 *64:3 0.03717942
4 *64:4 0.0386121
5 *64:5 0.01591863
6 *64:6 0.0359588
7 *64:7 0.03739148
8 *64:8 0.133183
9 *64:9 0.1514739
10 *64:10 0.07353156
11 *64:11 0.07209888

*RES
0 *31:Y *64:11 1
1 *64:4 *64:3 1.308929
2 *64:5 *64:4 0.5
3 *64:3 *43:A4 1
4 *64:10 *64:9 0.5
5 *64:9 *64:8 6.21875
6 *64:9 *64:5 0.7901787
7 *64:11 *64:10 2.394643
8 *64:7 *64:6 0.7660714
9 *64:8 *64:7 0.5
10 *64:6 *36:A4 1

*END

*D_NET *65 0.2249292 //LENGTH 2.198 LUMPCC 0 DR

*CONN
*I *32:Y O *L 0 *C 8.296 6.408
*I *56:A2 I *L 0.567721 *C 8.144 4.584
*N *65:2 *C 8.144 4.598
*N *65:3 *C 8.144 5.952
*N *65:4 *C 8.296 5.952
*N *65:5 *C 8.296 6.395

*CAP
0 *32:Y 0.001
1 *56:A2 0.001
2 *65:2 0.07425307
3 *65:3 0.08643168
4 *65:4 0.03721151
5 *65:5 0.0250329

*RES
0 *32:Y *65:5 1
1 *65:2 *56:A2 1
2 *65:5 *65:4 0.7901787
3 *65:3 *65:2 2.41875
4 *65:4 *65:3 0.2714286

*END

*D_NET *66 0.3993542 //LENGTH 4.403 LUMPCC 0 DR

*CONN
*I *29:Y O *L 0 *C 4.192 7.624
*I *36:A2 I *L 0.519379 *C 5.864 5.496
*I *40:A4 I *L 0.582243 *C 5.712 7.624
*N *66:3 *C 5.712 7.623
*N *66:4 *C 5.864 5.510
*N *66:5 *C 5.864 7.472
*N *66:6 *C 5.712 7.472
*N *66:7 *C 5.699 7.472
*N *66:8 *C 4.205 7.472
*N *66:9 *C 4.192 7.472
*N *66:10 *C 4.192 7.612

*CAP
0 *29:Y 0.001
1 *36:A2 0.001
2 *40:A4 0.001
3 *66:3 0.01180175
4 *66:4 0.106755
5 *66:5 0.1192181
6 *66:6 0.02189266
7 *66:7 0.06007576
8 *66:8 0.06007576
9 *66:9 0.00898394
10 *66:10 0.007551262

*RES
0 *29:Y *66:10 1
1 *66:4 *36:A2 1
2 *66:3 *40:A4 1
3 *66:6 *66:5 0.2714286
4 *66:6 *66:3 0.2696429
5 *66:7 *66:6 0.5
6 *66:9 *66:8 0.5
7 *66:8 *66:7 2.666071
8 *66:10 *66:9 0.2325
9 *66:5 *66:4 3.504465

*END

*D_NET *67 0.5779625 //LENGTH 6.503 LUMPCC 0 DR

*CONN
*I *30:Y O *L 0 *C 10.698 16.463
*I *42:A2 I *L 0.53006 *C 7.384 15.984
*I *35:A4 I *L 0.546328 *C 6.016 16.136
*N *67:3 *C 6.016 16.123
*N *67:4 *C 6.016 15.694
*N *67:5 *C 6.030 15.680
*N *67:6 *C 7.371 15.680
*N *67:7 *C 7.384 15.694
*N *67:8 *C 7.384 15.971
*N *67:9 *C 7.397 15.984
*N *67:10 *C 9.498 15.984
*N *67:11 *C 9.512 15.998
*N *67:12 *C 9.512 16.427
*N *67:13 *C 9.527 16.440

*CAP
0 *30:Y 0.06791136
1 *42:A2 0.001
2 *35:A4 0.001
3 *67:3 0.02838011
4 *67:4 0.02981278
5 *67:5 0.06325173
6 *67:6 0.06325173
7 *67:7 0.01974189
8 *67:8 0.01593699
9 *67:9 0.09149633
10 *67:10 0.09149633
11 *67:11 0.01927522
12 *67:12 0.01957204
13 *67:13 0.06583597

*RES
0 *30:Y *67:13 2.342
1 *67:8 *42:A2 1
2 *67:8 *67:7 0.4946429
3 *67:9 *67:8 0.5
4 *67:11 *67:10 0.5
5 *67:10 *67:9 3.751786
6 *67:13 *67:12 1
7 *67:12 *67:11 0.7660715
8 *67:7 *67:6 0.5
9 *67:6 *67:5 2.394643
10 *67:4 *67:3 0.7660714
11 *67:5 *67:4 0.5
12 *67:3 *35:A4 1

*END

*D_NET *68 0.552264 //LENGTH 6.179 LUMPCC 0 DR

*CONN
*I *41:Y O *L 0 *C 10.728 14.312
*I *45:A1 I *L 0.625865 *C 9.512 14.616
*I *42:A4 I *L 0.582243 *C 7.536 16.440
*N *68:3 *C 7.536 16.427
*N *68:4 *C 7.536 15.086
*N *68:5 *C 7.550 15.072
*N *68:6 *C 9.498 15.072
*N *68:7 *C 9.512 15.059
*N *68:8 *C 9.512 14.616
*N *68:9 *C 9.512 14.174
*N *68:10 *C 9.526 14.160
*N *68:11 *C 10.715 14.160
*N *68:12 *C 10.728 14.160
*N *68:13 *C 10.728 14.300

*CAP
0 *41:Y 0.001
1 *45:A1 0.001
2 *42:A4 0.001
3 *68:3 0.07085601
4 *68:4 0.07228869
5 *68:5 0.09819955
6 *68:6 0.09819955
7 *68:7 0.02209004
8 *68:8 0.04459473
9 *68:9 0.02156514
10 *68:10 0.0530914
11 *68:11 0.0530914
12 *68:12 0.008360055
13 *68:13 0.006927377

*RES
0 *41:Y *68:13 1
1 *68:8 *45:A1 1
2 *68:8 *68:7 0.7901786
3 *68:9 *68:8 0.7901787
4 *68:10 *68:9 0.5
5 *68:12 *68:11 0.5
6 *68:11 *68:10 2.123214
7 *68:13 *68:12 0.2325
8 *68:7 *68:6 0.5
9 *68:6 *68:5 3.480357
10 *68:4 *68:3 2.394643
11 *68:5 *68:4 0.5
12 *68:3 *42:A4 1

*END

*D_NET *69 0.2795052 //LENGTH 3.198 LUMPCC 0 DR

*CONN
*I *44:Y O *L 0 *C 6.776 13.248
*I *47:A2 I *L 0.475405 *C 6.168 11.120
*N *69:2 *C 6.168 10.938
*N *69:3 *C 6.168 11.107
*N *69:4 *C 6.182 11.120
*N *69:5 *C 6.763 11.120
*N *69:6 *C 6.776 11.133
*N *69:7 *C 6.776 13.235

*CAP
0 *44:Y 0.001
1 *47:A2 0.001
2 *69:2 0.02057303
3 *69:3 0.01439591
4 *69:4 0.02804307
5 *69:5 0.02804307
6 *69:6 0.09394141
7 *69:7 0.09250873

*RES
0 *44:Y *69:7 1
1 *69:3 *47:A2 1
2 *69:3 *69:2 0.2825
3 *69:4 *69:3 0.5
4 *69:6 *69:5 0.5
5 *69:5 *69:4 1.0375
6 *69:7 *69:6 3.751786

*END

*D_NET *70 0.6413673 //LENGTH 6.576 LUMPCC 0 DR

*CONN
*I *36:Y O *L 0 *C 6.848 6.560
*I *47:A1 I *L 0.546332 *C 6.016 11.424
*N *70:2 *C 6.016 11.411
*N *70:3 *C 6.016 10.222
*N *70:4 *C 6.030 10.208
*N *70:5 *C 7.067 10.208
*N *70:6 *C 7.080 10.194
*N *70:7 *C 7.080 6.560
*N *70:8 *C 6.929 6.560
*N *70:9 *C 6.916 6.560

*CAP
0 *36:Y 0.009931653
1 *47:A1 0.001
2 *70:2 0.08257505
3 *70:3 0.08400773
4 *70:4 0.05051954
5 *70:5 0.05051954
6 *70:6 0.169356
7 *70:7 0.1797026
8 *70:8 0.005898987
9 *70:9 0.007856255

*RES
0 *36:Y *70:9 0.1125
1 *70:2 *47:A1 1
2 *70:3 *70:2 2.123214
3 *70:4 *70:3 0.5
4 *70:6 *70:5 0.5
5 *70:5 *70:4 1.851786
6 *70:9 *70:8 1
7 *70:8 *70:7 0.2696429
8 *70:7 *70:6 6.49018

*END

*D_NET *71 0.3972233 //LENGTH 4.544 LUMPCC 0 DR

*CONN
*I *37:Y O *L 0 *C 1.608 13.096
*I *48:A1 I *L 0.625865 *C 1.608 14.616
*I *38:A3 I *L 0.560691 *C 1.964 16.896
*N *71:3 *C 1.912 16.896
*N *71:4 *C 1.912 16.883
*N *71:5 *C 1.912 15.086
*N *71:6 *C 1.899 15.072
*N *71:7 *C 1.622 15.072
*N *71:8 *C 1.608 15.059
*N *71:9 *C 1.608 14.616
*N *71:10 *C 1.608 13.110

*CAP
0 *37:Y 0.001
1 *48:A1 0.001
2 *38:A3 0.01006186
3 *71:3 0.007986465
4 *71:4 0.08512083
5 *71:5 0.08482401
6 *71:6 0.01564094
7 *71:7 0.01564094
8 *71:8 0.02199035
9 *71:9 0.08916022
10 *71:10 0.06479765

*RES
0 *37:Y *71:10 1
1 *71:8 *71:7 0.5
2 *71:7 *71:6 0.4946429
3 *71:5 *71:4 3.208929
4 *71:6 *71:5 0.5
5 *71:3 *38:A3 0.09166668
6 *71:4 *71:3 1
7 *71:9 *48:A1 1
8 *71:9 *71:8 0.7901786
9 *71:10 *71:9 2.690179

*END

*D_NET *72 0.575842 //LENGTH 5.461 LUMPCC 0 DR

*CONN
*I *39:Y O *L 0 *C 6.320 9.752
*I *40:A2 I *L 0.53006 *C 5.864 8.080
*I *49:A1 I *L 0.625865 *C 4.648 11.272
*N *72:3 *C 4.648 11.258
*N *72:4 *C 4.648 9.918
*N *72:5 *C 4.662 9.904
*N *72:6 *C 5.864 8.094
*N *72:7 *C 5.864 9.891
*N *72:8 *C 5.864 9.904
*N *72:9 *C 6.307 9.904
*N *72:10 *C 6.320 9.892
*N *72:11 *C 6.320 9.752

*CAP
0 *39:Y 0.001
1 *40:A2 0.001
2 *49:A1 0.001
3 *72:3 0.07371616
4 *72:4 0.07514884
5 *72:5 0.05215004
6 *72:6 0.1247789
7 *72:7 0.1262115
8 *72:8 0.07378665
9 *72:9 0.01926438
10 *72:10 0.01460907
11 *72:11 0.01317639

*RES
0 *39:Y *72:11 1
1 *72:10 *72:9 0.5
2 *72:9 *72:8 0.7901787
3 *72:11 *72:10 0.2325
4 *72:7 *72:6 3.208929
5 *72:8 *72:7 0.5
6 *72:8 *72:5 2.147322
7 *72:6 *40:A2 1
8 *72:4 *72:3 2.394643
9 *72:5 *72:4 0.5
10 *72:3 *49:A1 1

*END

*D_NET *73 0.2856054 //LENGTH 3.355 LUMPCC 0 DR

*CONN
*I *47:Y O *L 0 *C 5.408 10.968
*I *50:A2 I *L 0.475405 *C 2.672 11.120
*N *73:2 *C 2.672 10.938
*N *73:3 *C 2.672 11.107
*N *73:4 *C 2.686 11.120
*N *73:5 *C 5.394 11.120
*N *73:6 *C 5.408 11.107
*N *73:7 *C 5.408 10.968

*CAP
0 *47:Y 0.001
1 *50:A2 0.001
2 *73:2 0.01287226
3 *73:3 0.006695145
4 *73:4 0.1211621
5 *73:5 0.1211621
6 *73:6 0.01157323
7 *73:7 0.01014055

*RES
0 *47:Y *73:7 1
1 *73:3 *50:A2 1
2 *73:3 *73:2 0.2825
3 *73:4 *73:3 0.5
4 *73:6 *73:5 0.5
5 *73:5 *73:4 4.837501
6 *73:7 *73:6 0.2325

*END

*D_NET *74 0.9701471 //LENGTH 11.412 LUMPCC 0 DR

*CONN
*I *34:Y O *L 0 *C 9.816 13.096
*I *35:A2 I *L 0.519379 *C 6.168 15.528
*I *51:A2 I *L 0.557409 *C 4.344 16.288
*I *38:A1 I *L 0.530816 *C 2.520 16.288
*N *74:4 *C 2.520 16.106
*N *74:5 *C 2.520 16.276
*N *74:6 *C 2.534 16.288
*N *74:7 *C 4.344 16.106
*N *74:8 *C 4.344 16.276
*N *74:9 *C 4.344 16.288
*N *74:10 *C 6.155 16.288
*N *74:11 *C 6.168 16.274
*N *74:12 *C 6.168 15.528
*N *74:13 *C 6.168 14.782
*N *74:14 *C 6.182 14.768
*N *74:15 *C 9.803 14.768
*N *74:16 *C 9.816 14.755
*N *74:17 *C 9.816 13.110

*CAP
0 *34:Y 0.001
1 *35:A2 0.001
2 *51:A2 0.001
3 *38:A1 0.001
4 *74:4 0.0130428
5 *74:5 0.006865683
6 *74:6 0.07536175
7 *74:7 0.01382378
8 *74:8 0.007646668
9 *74:9 0.1647845
10 *74:10 0.08705053
11 *74:11 0.03811868
12 *74:12 0.07507427
13 *74:13 0.03601605
14 *74:14 0.1513538
15 *74:15 0.1513538
16 *74:16 0.07354379
17 *74:17 0.07211111

*RES
0 *34:Y *74:17 1
1 *74:12 *35:A2 1
2 *74:12 *74:11 1.333036
3 *74:13 *74:12 1.333036
4 *74:14 *74:13 0.5
5 *74:16 *74:15 0.5
6 *74:15 *74:14 6.466072
7 *74:17 *74:16 2.9375
8 *74:11 *74:10 0.5
9 *74:10 *74:9 3.233036
10 *74:8 *51:A2 1
11 *74:8 *74:7 0.2825
12 *74:9 *74:8 0.5
13 *74:9 *74:6 3.233036
14 *74:5 *38:A1 1
15 *74:5 *74:4 0.2825
16 *74:6 *74:5 0.5

*END

*D_NET *75 0.6683854 //LENGTH 8.417 LUMPCC 0 DR

*CONN
*I *38:Y O *L 0 *C 1.578 15.832
*I *28:A I *L 0.604022 *C 2.509 12.974
*I *44:A1 I *L 0.556443 *C 5.408 13.096
*N *75:3 *C 5.408 13.096
*N *75:4 *C 5.408 13.236
*N *75:5 *C 5.394 13.248
*N *75:6 *C 2.381 12.944
*N *75:7 *C 2.368 12.958
*N *75:8 *C 2.368 13.235
*N *75:9 *C 2.368 13.248
*N *75:10 *C 1.165 13.248
*N *75:11 *C 1.152 13.261
*N *75:12 *C 1.152 15.819
*N *75:13 *C 1.167 15.832

*CAP
0 *38:Y 0.02494857
1 *28:A 0.01450193
2 *44:A1 0.001
3 *75:3 0.009838098
4 *75:4 0.01127078
5 *75:5 0.1184184
6 *75:6 0.01242653
7 *75:7 0.02231346
8 *75:8 0.02201664
9 *75:9 0.1613733
10 *75:10 0.04058263
11 *75:11 0.1032626
12 *75:12 0.1035594
13 *75:13 0.02287317

*RES
0 *38:Y *75:13 0.8220001
1 *75:4 *75:3 0.2325
2 *75:5 *75:4 0.5
3 *75:3 *44:A1 1
4 *75:8 *75:7 0.4946429
5 *75:9 *75:8 0.5
6 *75:9 *75:5 5.404465
7 *75:6 *28:A 0.2133334
8 *75:7 *75:6 1
9 *75:11 *75:10 0.5
10 *75:10 *75:9 2.147322
11 *75:13 *75:12 1
12 *75:12 *75:11 4.566072

*END

*D_NET *76 0.5484766 //LENGTH 6.398 LUMPCC 0 DR

*CONN
*I *40:Y O *L 0 *C 5.104 8.232
*I *52:A3 I *L 0.535888 *C 4.526 12.817
*I *44:A2 I *L 0.57889 *C 5.560 12.792
*N *76:3 *C 5.560 12.792
*N *76:4 *C 5.560 12.931
*N *76:5 *C 5.546 12.944
*N *76:6 *C 5.118 12.944
*N *76:7 *C 5.104 12.931
*N *76:8 *C 5.089 12.792